
This summary information was generated by ElastoDyn on 14-Mar-2023 at 14:32:42.


Turbine features:

            Upwind, 3-bladed rotor with rigid hub.
            The model has 2 of 24 DOFs active (enabled) at start-up.
 Disabled   Platform horizontal surge translation DOF 
 Disabled   Platform horizontal sway translation DOF 
 Disabled   Platform vertical heave translation DOF 
 Disabled   Platform roll tilt rotation DOF 
 Disabled   Platform pitch tilt rotation DOF 
 Disabled   Platform yaw rotation DOF 
 Disabled   1st tower fore-aft bending mode DOF 
 Disabled   1st tower side-to-side bending mode DOF 
 Disabled   2nd tower fore-aft bending mode DOF 
 Disabled   2nd tower side-to-side bending mode DOF 
 Enabled    Nacelle yaw DOF 
 Disabled   Rotor-furl DOF 
 Enabled    Variable speed generator DOF 
 Disabled   Drivetrain rotational-flexibility DOF 
 Disabled   Tail-furl DOF 
 Disabled   1st flapwise bending-mode DOF of blade 1 
 Disabled   1st edgewise bending-mode DOF of blade 1 
 Disabled   2nd flapwise bending-mode DOF of blade 1 
 Disabled   1st flapwise bending-mode DOF of blade 2 
 Disabled   1st edgewise bending-mode DOF of blade 2 
 Disabled   2nd flapwise bending-mode DOF of blade 2 
 Disabled   1st flapwise bending-mode DOF of blade 3 
 Disabled   1st edgewise bending-mode DOF of blade 3 
 Disabled   2nd flapwise bending-mode DOF of blade 3 


Time steps:

    Structural            (s)        0.02500000


Some calculated parameters:

    Hub-Height            (m)           118.999
    Flexible Tower Length (m)            90.630
    Flexible Blade Length (m)            86.400


Rotor mass properties:

    Rotor Mass            (kg)       230798.453
    Rotor Inertia         (kg-m^2)156463776.000
                                        Blade 1      Blade 2      Blade 3
                                        -------      -------      -------
    Mass                  (kg)        41759.480    41759.480    41759.480
    Second Mass Moment    (kg-m^2) 45702724.000 45702724.000 45702724.000
    First Mass Moment     (kg-m)    1091987.750  1091987.750  1091987.750
    Center of Mass        (m)            26.149       26.149       26.149


Additional mass properties:

    Tower-top Mass        (kg)       676834.688
    Tower Mass            (kg)       436278.000
    Platform Mass         (kg)     28228630.000
    Mass Incl. Platform   (kg)     29341742.000


Interpolated tower properties:

Node  TwFract   HNodes  DHNodes  TMassDen    FAStiff    SSStiff
 (-)      (-)      (m)      (m)    (kg/m)     (Nm^2)     (Nm^2)
   1    0.010    0.871    1.743  6911.900  1.248E+12  1.248E+12
   2    0.029    2.614    1.743  6821.437  1.218E+12  1.218E+12
   3    0.048    4.357    1.743  6729.712  1.188E+12  1.188E+12
   4    0.067    6.100    1.743  6638.586  1.159E+12  1.159E+12
   5    0.087    7.843    1.743  6548.059  1.131E+12  1.131E+12
   6    0.106    9.586    1.743  6458.128  1.103E+12  1.103E+12
   7    0.125   11.329    1.743  6368.796  1.076E+12  1.076E+12
   8    0.144   13.072    1.743  6280.062  1.049E+12  1.049E+12
   9    0.163   14.815    1.743  6191.926  1.022E+12  1.022E+12
  10    0.183   16.557    1.743  6104.388  9.965E+11  9.965E+11
  11    0.202   18.300    1.743  6017.448  9.711E+11  9.711E+11
  12    0.221   20.043    1.743  5931.105  9.462E+11  9.462E+11
  13    0.240   21.786    1.743  5845.361  9.217E+11  9.217E+11
  14    0.260   23.529    1.743  5760.215  8.977E+11  8.977E+11
  15    0.279   25.272    1.743  5675.667  8.742E+11  8.742E+11
  16    0.298   27.015    1.743  5591.716  8.511E+11  8.511E+11
  17    0.317   28.758    1.743  5508.364  8.285E+11  8.285E+11
  18    0.337   30.500    1.743  5425.610  8.064E+11  8.064E+11
  19    0.356   32.243    1.743  5343.454  7.847E+11  7.847E+11
  20    0.375   33.986    1.743  5261.895  7.634E+11  7.634E+11
  21    0.394   35.729    1.743  5180.935  7.425E+11  7.425E+11
  22    0.413   37.472    1.743  5100.572  7.221E+11  7.221E+11
  23    0.433   39.215    1.743  5020.808  7.021E+11  7.021E+11
  24    0.452   40.958    1.743  4941.641  6.825E+11  6.825E+11
  25    0.471   42.701    1.743  4863.072  6.633E+11  6.633E+11
  26    0.490   44.444    1.743  4785.102  6.445E+11  6.445E+11
  27    0.510   46.186    1.743  4707.741  6.261E+11  6.261E+11
  28    0.529   47.929    1.743  4630.991  6.081E+11  6.081E+11
  29    0.548   49.672    1.743  4554.840  5.905E+11  5.905E+11
  30    0.567   51.415    1.743  4479.286  5.732E+11  5.732E+11
  31    0.587   53.158    1.743  4404.330  5.564E+11  5.564E+11
  32    0.606   54.901    1.743  4329.973  5.399E+11  5.399E+11
  33    0.625   56.644    1.743  4256.212  5.238E+11  5.238E+11
  34    0.644   58.387    1.743  4183.050  5.080E+11  5.080E+11
  35    0.663   60.130    1.743  4110.487  4.926E+11  4.926E+11
  36    0.683   61.872    1.743  4038.521  4.775E+11  4.775E+11
  37    0.702   63.615    1.743  3967.153  4.628E+11  4.628E+11
  38    0.721   65.358    1.743  3896.383  4.484E+11  4.484E+11
  39    0.740   67.101    1.743  3826.211  4.343E+11  4.343E+11
  40    0.760   68.844    1.743  3756.637  4.206E+11  4.206E+11
  41    0.779   70.587    1.743  3687.661  4.072E+11  4.072E+11
  42    0.798   72.330    1.743  3619.283  3.941E+11  3.941E+11
  43    0.817   74.073    1.743  3551.503  3.813E+11  3.813E+11
  44    0.837   75.815    1.743  3484.321  3.688E+11  3.688E+11
  45    0.856   77.558    1.743  3417.737  3.566E+11  3.566E+11
  46    0.875   79.301    1.743  3351.751  3.447E+11  3.447E+11
  47    0.894   81.044    1.743  3286.363  3.331E+11  3.331E+11
  48    0.913   82.787    1.743  3221.573  3.218E+11  3.218E+11
  49    0.933   84.530    1.743  3157.381  3.108E+11  3.108E+11
  50    0.952   86.273    1.743  3093.787  3.001E+11  3.001E+11
  51    0.971   88.016    1.743  3030.790  2.896E+11  2.896E+11
  52    0.990   89.759    1.743  2969.627  2.794E+11  2.794E+11


Interpolated blade 1 properties:

Node  BlFract   RNodes  DRNodes PitchAxis  StrcTwst  BMassDen    FlpStff    EdgStff
 (-)      (-)      (m)      (m)       (-)     (deg)    (kg/m)     (Nm^2)     (Nm^2)
   1    0.020    4.528    3.456     0.000     0.000  1191.300  6.213E+10  6.110E+10
   2    0.060    7.984    3.456     0.001     0.000  1176.711  6.062E+10  5.859E+10
   3    0.100   11.440    3.456     0.018    35.683  1059.974  4.584E+10  5.123E+10
   4    0.140   14.896    3.456     0.081    27.418   919.623  2.961E+10  3.887E+10
   5    0.180   18.352    3.456     0.157    14.277   845.454  1.912E+10  3.176E+10
   6    0.220   21.808    3.456     0.178     9.393   745.576  1.319E+10  2.591E+10
   7    0.260   25.264    3.456     0.197     6.997   663.904  9.701E+09  2.122E+10
   8    0.300   28.720    3.456     0.213     5.189   601.444  7.196E+09  1.876E+10
   9    0.340   32.176    3.456     0.219     4.320   569.908  5.571E+09  1.680E+10
  10    0.380   35.632    3.456     0.223     3.972   534.288  4.395E+09  1.391E+10
  11    0.420   39.088    3.456     0.224     3.425   498.580  3.460E+09  1.172E+10
  12    0.460   42.544    3.456     0.224     2.932   464.414  2.689E+09  9.672E+09
  13    0.500   46.000    3.456     0.224     2.458   428.620  2.071E+09  7.864E+09
  14    0.540   49.456    3.456     0.223     2.092   388.386  1.579E+09  6.107E+09
  15    0.580   52.912    3.456     0.223     1.732   350.734  1.204E+09  4.801E+09
  16    0.620   56.368    3.456     0.222     1.455   314.282  9.178E+08  3.653E+09
  17    0.660   59.824    3.456     0.220     1.215   277.237  6.941E+08  2.724E+09
  18    0.700   63.280    3.456     0.220     1.025   242.565  5.192E+08  2.009E+09
  19    0.740   66.736    3.456     0.216     0.881   207.144  3.774E+08  1.452E+09
  20    0.780   70.192    3.456     0.215     0.749   174.893  2.648E+08  1.038E+09
  21    0.820   73.648    3.456     0.213     0.655   143.475  1.803E+08  7.175E+08
  22    0.860   77.104    3.456     0.209     0.577   112.452  1.154E+08  4.820E+08
  23    0.900   80.560    3.456     0.204     0.563    85.462  6.814E+07  3.114E+08
  24    0.940   84.016    3.456     0.200     0.581    57.686  3.205E+07  1.695E+08
  25    0.980   87.472    3.456     0.196     0.765    29.071  6.997E+06  5.640E+07


Interpolated blade 2 properties:

Node  BlFract   RNodes  DRNodes PitchAxis  StrcTwst  BMassDen    FlpStff    EdgStff
 (-)      (-)      (m)      (m)       (-)     (deg)    (kg/m)     (Nm^2)     (Nm^2)
   1    0.020    4.528    3.456     0.000     0.000  1191.300  6.213E+10  6.110E+10
   2    0.060    7.984    3.456     0.001     0.000  1176.711  6.062E+10  5.859E+10
   3    0.100   11.440    3.456     0.018    35.683  1059.974  4.584E+10  5.123E+10
   4    0.140   14.896    3.456     0.081    27.418   919.623  2.961E+10  3.887E+10
   5    0.180   18.352    3.456     0.157    14.277   845.454  1.912E+10  3.176E+10
   6    0.220   21.808    3.456     0.178     9.393   745.576  1.319E+10  2.591E+10
   7    0.260   25.264    3.456     0.197     6.997   663.904  9.701E+09  2.122E+10
   8    0.300   28.720    3.456     0.213     5.189   601.444  7.196E+09  1.876E+10
   9    0.340   32.176    3.456     0.219     4.320   569.908  5.571E+09  1.680E+10
  10    0.380   35.632    3.456     0.223     3.972   534.288  4.395E+09  1.391E+10
  11    0.420   39.088    3.456     0.224     3.425   498.580  3.460E+09  1.172E+10
  12    0.460   42.544    3.456     0.224     2.932   464.414  2.689E+09  9.672E+09
  13    0.500   46.000    3.456     0.224     2.458   428.620  2.071E+09  7.864E+09
  14    0.540   49.456    3.456     0.223     2.092   388.386  1.579E+09  6.107E+09
  15    0.580   52.912    3.456     0.223     1.732   350.734  1.204E+09  4.801E+09
  16    0.620   56.368    3.456     0.222     1.455   314.282  9.178E+08  3.653E+09
  17    0.660   59.824    3.456     0.220     1.215   277.237  6.941E+08  2.724E+09
  18    0.700   63.280    3.456     0.220     1.025   242.565  5.192E+08  2.009E+09
  19    0.740   66.736    3.456     0.216     0.881   207.144  3.774E+08  1.452E+09
  20    0.780   70.192    3.456     0.215     0.749   174.893  2.648E+08  1.038E+09
  21    0.820   73.648    3.456     0.213     0.655   143.475  1.803E+08  7.175E+08
  22    0.860   77.104    3.456     0.209     0.577   112.452  1.154E+08  4.820E+08
  23    0.900   80.560    3.456     0.204     0.563    85.462  6.814E+07  3.114E+08
  24    0.940   84.016    3.456     0.200     0.581    57.686  3.205E+07  1.695E+08
  25    0.980   87.472    3.456     0.196     0.765    29.071  6.997E+06  5.640E+07


Interpolated blade 3 properties:

Node  BlFract   RNodes  DRNodes PitchAxis  StrcTwst  BMassDen    FlpStff    EdgStff
 (-)      (-)      (m)      (m)       (-)     (deg)    (kg/m)     (Nm^2)     (Nm^2)
   1    0.020    4.528    3.456     0.000     0.000  1191.300  6.213E+10  6.110E+10
   2    0.060    7.984    3.456     0.001     0.000  1176.711  6.062E+10  5.859E+10
   3    0.100   11.440    3.456     0.018    35.683  1059.974  4.584E+10  5.123E+10
   4    0.140   14.896    3.456     0.081    27.418   919.623  2.961E+10  3.887E+10
   5    0.180   18.352    3.456     0.157    14.277   845.454  1.912E+10  3.176E+10
   6    0.220   21.808    3.456     0.178     9.393   745.576  1.319E+10  2.591E+10
   7    0.260   25.264    3.456     0.197     6.997   663.904  9.701E+09  2.122E+10
   8    0.300   28.720    3.456     0.213     5.189   601.444  7.196E+09  1.876E+10
   9    0.340   32.176    3.456     0.219     4.320   569.908  5.571E+09  1.680E+10
  10    0.380   35.632    3.456     0.223     3.972   534.288  4.395E+09  1.391E+10
  11    0.420   39.088    3.456     0.224     3.425   498.580  3.460E+09  1.172E+10
  12    0.460   42.544    3.456     0.224     2.932   464.414  2.689E+09  9.672E+09
  13    0.500   46.000    3.456     0.224     2.458   428.620  2.071E+09  7.864E+09
  14    0.540   49.456    3.456     0.223     2.092   388.386  1.579E+09  6.107E+09
  15    0.580   52.912    3.456     0.223     1.732   350.734  1.204E+09  4.801E+09
  16    0.620   56.368    3.456     0.222     1.455   314.282  9.178E+08  3.653E+09
  17    0.660   59.824    3.456     0.220     1.215   277.237  6.941E+08  2.724E+09
  18    0.700   63.280    3.456     0.220     1.025   242.565  5.192E+08  2.009E+09
  19    0.740   66.736    3.456     0.216     0.881   207.144  3.774E+08  1.452E+09
  20    0.780   70.192    3.456     0.215     0.749   174.893  2.648E+08  1.038E+09
  21    0.820   73.648    3.456     0.213     0.655   143.475  1.803E+08  7.175E+08
  22    0.860   77.104    3.456     0.209     0.577   112.452  1.154E+08  4.820E+08
  23    0.900   80.560    3.456     0.204     0.563    85.462  6.814E+07  3.114E+08
  24    0.940   84.016    3.456     0.200     0.581    57.686  3.205E+07  1.695E+08
  25    0.980   87.472    3.456     0.196     0.765    29.071  6.997E+06  5.640E+07


Requested Outputs:


 Col   Parameter            Units               
 ---   ---------------      ---------------     
   0   Time                 (s)                 
   1   RotSpeed             (rpm)               
   2   GenSpeed             (rpm)               
   3   YawBrTAxp            (m/s^2)             
   4   BldPitch1            (deg)               
   5   BldPitch2            (deg)               
   6   BldPitch3            (deg)               
   7   TwrBsMyt             (kN-m)              
   8   LSShftTq             (kN-m)              
   9   RotThrust            (kN)                


  Requested Output Channels at each blade station:
 Col   Parameter            Units               
 ---   ---------------      ---------------     
