Echo file for AeroDyn 15 primary input file: .\OpenFAST\T2\DTU_10MW_RWT_AeroDynv15.dat
------- AERODYN v15.04.* INPUT FILE ------------------------------------------------                                                                                                                                                                                                                                                                                                                                                                                                                                                                                                                                                                                                                                                                                                                                                                                                                                                                                                                                                                            
DTU 10MW baseline aerodynamic input properties, updated to OpenFAST v3.0.0. TODO: Update tower properties (currently NREL 5MW)                                                                                                                                                                                                                                                                                                                                                                                                                                                                                                                                                                                                                                                                                                                                                                                                                                                                                                                                  
======  General Options  ============================================================================                                                                                                                                                                                                                                                                                                                                                                                                                                                                                                                                                                                                                                                                                                                                                                                                                                                                                                                                                           
 True            = Echo                
 default         = DTAero              
 1               = WakeMod             
 1               = AFAeroMod           
 0               = TwrPotent           
 0               = TwrShadow           
 False           = TwrAero             
 False           = FrozenWake          
 False           = CavitCheck          
 False           = CompAA              
 unused          = AA_InputFile        
======  Environmental Conditions  ===================================================================                                                                                                                                                                                                                                                                                                                                                                                                                                                                                                                                                                                                                                                                                                                                                                                                                                                                                                                                                           
 1.225           = AirDens             
 1.464E-05       = KinVisc             
 335             = SpdSound            
 9999.9          = Patm                
 9999.9          = Pvap                
 9999.9          = FluidDepth          
======  Blade-Element/Momentum Theory Options  ====================================================== [used only when WakeMod=1]                                                                                                                                                                                                                                                                                                                                                                                                                                                                                                                                                                                                                                                                                                                                                                                                                                                                                                                                
 2               = SkewMod             
 default         = SkewModFactor       
 True            = TipLoss             
 True            = HubLoss             
 true            = TanInd              
 False           = AIDrag              
 False           = TIDrag              
 Default         = IndToler            
 100             = MaxIter             
======  Dynamic Blade-Element/Momentum Theory Options  ============================================== [used only when WakeMod=2]                                                                                                                                                                                                                                                                                                                                                                                                                                                                                                                                                                                                                                                                                                                                                                                                                                                                                                                                
 2               = DBEMT_Mod           
 4               = tau1_const          
======  OLAF -- cOnvecting LAgrangian Filaments (Free Vortex Wake) Theory Options  ================== [used only when WakeMod=3]                                                                                                                                                                                                                                                                                                                                                                                                                                                                                                                                                                                                                                                                                                                                                                                                                                                                                                                                
 unused          = OLAFInputFileName   
======  Beddoes-Leishman Unsteady Airfoil Aerodynamics Options  ===================================== [used only when AFAeroMod=2]                                                                                                                                                                                                                                                                                                                                                                                                                                                                                                                                                                                                                                                                                                                                                                                                                                                                                                                              
 3               = UAMod               
 True            = FLookup             
======  Airfoil Information =========================================================================                                                                                                                                                                                                                                                                                                                                                                                                                                                                                                                                                                                                                                                                                                                                                                                                                                                                                                                                                           
 1               = AFTabMod            
 1               = InCol_Alfa          
 2               = InCol_Cl            
 3               = InCol_Cd            
 4               = InCol_Cm            
 0               = InCol_Cpmin         
 6               = NumAFfiles          
 AeroData\Cylind = AFNames             
 AeroData\FFA_W3 =                     
 AeroData\FFA_W3 =                     
 AeroData\FFA_W3 =                     
 AeroData\FFA_W3 =                     
 AeroData\FFA_W3 =                     
======  Rotor/Blade Properties  =====================================================================                                                                                                                                                                                                                                                                                                                                                                                                                                                                                                                                                                                                                                                                                                                                                                                                                                                                                                                                                           
 True            = UseBlCm             
 DTU_10MW_RWT_Ae = ADBlFile(1)         
 DTU_10MW_RWT_Ae = ADBlFile(2)         
 DTU_10MW_RWT_Ae = ADBlFile(3)         
======  Tower Influence and Aerodynamics ============================================================= [used only when TwrPotent/=0, TwrShadow=True, or TwrAero=True]                                                                                                                                                                                                                                                                                                                                                                                                                                                                                                                                                                                                                                                                                                                                                                                                                                                                                           
 12              = NumTwrNds           
Tower Table Header: TwrElev        TwrDiam        TwrCd			TwrTI (used only with TwrShadow=2)                                                                                                                                                                                                                                                                                                                                                                                                                                                                                                                                                                                                                                                                                                                                                                                                                                                                                                                                                                                        
Tower Table Header: (m)              (m)           (-)				(-)                                                                                                                                                                                                                                                                                                                                                                                                                                                                                                                                                                                                                                                                                                                                                                                                                                                                                                                                                                                                                       
0.0000000E+00  6.0000000E+00  1.0000000E+00 1.0000000E-01
8.5261000E+00  5.7870000E+00  1.0000000E+00 1.0000000E-01
1.7053000E+01  5.5740000E+00  1.0000000E+00 1.0000000E-01
2.5579000E+01  5.3610000E+00  1.0000000E+00 1.0000000E-01
3.4105000E+01  5.1480000E+00  1.0000000E+00 1.0000000E-01
4.2633000E+01  4.9350000E+00  1.0000000E+00 1.0000000E-01
5.1158000E+01  4.7220000E+00  1.0000000E+00 1.0000000E-01
5.9685000E+01  4.5090000E+00  1.0000000E+00 1.0000000E-01
6.8211000E+01  4.2960000E+00  1.0000000E+00 1.0000000E-01
7.6738000E+01  4.0830000E+00  1.0000000E+00 1.0000000E-01
8.5268000E+01  3.8700000E+00  1.0000000E+00 1.0000000E-01
8.7600000E+01  3.8700000E+00  1.0000000E+00 1.0000000E-01
======  Outputs  ====================================================================================                                                                                                                                                                                                                                                                                                                                                                                                                                                                                                                                                                                                                                                                                                                                                                                                                                                                                                                                                           
 True            = SumPrint            
 0               = NBlOuts             
1,          9,         19    BlOutNd             - Blade nodes whose values will be output  (-)
 0               = NTwOuts             
1,          2,          6    TwOutNd             - Tower nodes whose values will be output  (-)
OutList             - The next line(s) contains a list of output parameters.  See OutListParameters.xlsx for a listing of available output channels, (-)                                                                                                                                                                                                                                                                                                                                                                                                                                                                                                                                                                                                                                                                                                                                                                                                                                                                                                        
"RtAeroFxh"				                                                                                                                                                                                                                                                                                                                                                                                                                                                                                                                                                                                                                                                                                                                                                                                                                                                                                                                                                                                                                                                 
END of input file (the word "END" must appear in the first 3 columns of this last OutList line)                                                                                                                                                                                                                                                                                                                                                                                                                                                                                                                                                                                                                                                                                                                                                                                                                                                                                                                                                                 
